ASSIGN,OUTPUT2='Antler Joint.op2',UNIT=12
ID,NASTRAN,Antler Joint
SOL 101
TIME 10000
CEND
ECHO = NONE
SUBCASE = 1
OUTPUT
DISPLACEMENT(PLOT) = ALL
STRESS(PLOT,CORNER) = ALL
SPCFORCES(PLOT) = ALL
TITLE = Antler Joint.inp
LABEL = LS
SPC = 1
LOAD = 1
$ VKI 67843 07-Mar-24 15:19:22
BEGIN BULK
PARAM,POST,-1
PARAM,PATVER,3.0
PARAM,K6ROT,100.0
PARAM,MAXRATIO,1.E+8
PARAM,GRDPNT,0
$          Grid points
GRID*                  1               0-4.0000000000E+1 4.898425415E-15
*        1.4000000000E+2               0
GRID*                  2               0-3.9708354949E+1-4.8214673995E+0
*        1.4000000000E+2               0
GRID*                  3               0-3.8837673187E+1-9.5726261138E+0
*        1.4000000000E+2               0
GRID*                  4               0-3.7400650024E+1-1.4184195518E+1
*        1.4000000000E+2               0
GRID*                  5               0-3.5418239593E+1-1.8588926315E+1
*        1.4000000000E+2               0
GRID*                  6               0-3.2919353485E+1-2.2722589492E+1
*        1.4000000000E+2               0
GRID*                  7               0-2.9940429687E+1-2.6524906158E+1
*        1.4000000000E+2               0
GRID*                  8               0-2.6524906158E+1-2.9940429687E+1
*        1.4000000000E+2               0
GRID*                  9               0-2.2722589492E+1-3.2919353485E+1
*        1.4000000000E+2               0
GRID*                 10               0-1.8588926315E+1-3.5418239593E+1
*        1.4000000000E+2               0
GRID*                 11               0-1.4184195518E+1-3.7400650024E+1
*        1.4000000000E+2               0
GRID*                 12               0-9.5726261138E+0-3.8837673187E+1
*        1.4000000000E+2               0
GRID*                 13               0-4.8214673995E+0-3.9708354949E+1
*        1.4000000000E+2               0
GRID*                 14               0-7.347638122E-15-4.0000000000E+1
*        1.4000000000E+2               0
GRID*                 15               0-4.0000000000E+1 4.898425415E-15
*        1.3500000000E+2               0
GRID*                 16               0-3.9708354949E+1-4.8214673995E+0
*        1.3500000000E+2               0
GRID*                 17               0-3.8837673187E+1-9.5726261138E+0
*        1.3500000000E+2               0
GRID*                 18               0-3.7400650024E+1-1.4184195518E+1
*        1.3500000000E+2               0
GRID*                 19               0-3.5418239593E+1-1.8588926315E+1
*        1.3500000000E+2               0
GRID*                 20               0-3.2919353485E+1-2.2722589492E+1
*        1.3500000000E+2               0
$ ... 11462 like lines cut
$          Elements
CQUAD4        15       1      16      30      31      17        
CQUAD4        14       1      15      29      30      16        
CQUAD4        13       1      13      27      28      14        
CQUAD4        12       1      12      26      27      13        
CQUAD4        11       1      11      25      26      12        
CQUAD4        10       1      10      24      25      11        
CQUAD4         9       1       9      23      24      10        
CQUAD4         8       1       8      22      23       9        
CQUAD4         7       1       7      21      22       8        
CQUAD4         6       1       6      20      21       7        
CQUAD4         5       1       5      19      20       6        
CQUAD4         4       1       4      18      19       5        
CQUAD4         3       1       3      17      18       4        
CQUAD4         2       1       2      16      17       3        
CQUAD4         1       1       1      15      16       2        
CQUAD4        31       1      33      47      48      34        
CQUAD4        30       1      32      46      47      33        
CQUAD4        29       1      31      45      46      32        
CQUAD4        28       1      30      44      45      31        
CQUAD4        27       1      29      43      44      30        
$ ... 5652 like lines cut
RBE2        5673    5751  123456    1554    1563    1572    1581    1590
            1635    1644    1653    1662    2407    2408    2409    2410
            2411    2412    2413    2414    2415    2416    2893    2901
            2909    2917    2957    2965    2973    2981    5751
RBE2        5674    5750  123456    1549    1550    1551    1552    1553
            1607    1616    1625    1634    2085    2086    2087    2088
            2089    2090    2091    2092    2093    2094    2868    2876
            2884    2892    2932    2940    2948    2956    5750
RBE2        5675    5749  123456    4497    4498    4499    4500    4501
            4502    4503    4504    4505    4506    4507    4508    4509
            4510    4609    4610    4611    4612    4613    4614    4615
            4616    4617    4618    4619    4620    4621    4713    4714
            4715    4716    4717    4718    4719    4720    4721    4722
            4723    4724    4725    4901    4902    4903    4904    4905
            4906    4907    4908    4909    4910    4911    4912    5749
$          Node sets
$          Coordinate systems
CORD2R , 1, ,               0.,               0.,               0.,               0.,               0.,               1.
       ,               1.,               0.,               0., , , , , 
CORD2C , 2, ,               0.,               0.,               0.,               0.,               0.,               1.
       ,               1.,               0.,               0., , , , , 
$          Element properties
PSHELL         1       1      1.       1     1.        1.8333333     0. 
$          Material properties
MAT1*                  1  2.00000000E+07                  2.66000000E-01
*         0.00000000E+00  0.00000000E+00  0.00000000E+00
$          Loads
FORCE          1    5749       0  1000.      0.      0.      1. 
FORCE          1    5750       0  1000.      1.      0.      0. 
FORCE          1    5751       0  1000.     -1.      0.      0. 
$          Restraints
SPC1           1  123456     393
SPC1           1  123456     394
SPC1           1  123456     395
SPC1           1  123456     396
SPC1           1  123456     397
SPC1           1  123456     398
SPC1           1  123456     399
SPC1           1  123456     400
SPC1           1  123456     401
SPC1           1  123456     402
SPC1           1  123456     403
SPC1           1  123456     404
SPC1           1  123456     405
SPC1           1  123456     406
SPC1           1  123456     771
SPC1           1  123456     772
SPC1           1  123456     773
SPC1           1  123456     774
SPC1           1  123456     775
SPC1           1  123456     776
$ ... 32 like lines cut
ENDDATA
